/*---------------------------------------------------------------------------*\
  =========                 |
  \\      /  F ield         | OpenFOAM: The Open Source CFD Toolbox
   \\    /   O peration     | Website:  https://openfoam.org
    \\  /    A nd           | Version:  dev
     \\/     M anipulation  |
\*---------------------------------------------------------------------------*/
Build  : dev-91d48d2eb645
Exec   : snappyHexMesh -parallel -overwrite
Date   : Apr 10 2023
Time   : 04:26:09
Host   : "2b237630cb0d"
PID    : 1258
I/O    : uncollated
Case   : /home/openfoam
nProcs : 4
Slaves : 
3
(
"2b237630cb0d.1261"
"2b237630cb0d.1264"
"2b237630cb0d.1267"
)

Pstream initialised with:
    floatTransfer      : 0
    nProcsSimpleSum    : 0
    commsType          : nonBlocking
    polling iterations : 0
sigFpe : Enabling floating point exception trapping (FOAM_SIGFPE).
fileModificationChecking : Monitoring run-time modified files using timeStampMaster (fileModificationSkew 10)
allowSystemOperations : Allowing user-supplied system call operations

// * * * * * * * * * * * * * * * * * * * * * * * * * * * * * * * * * * * * * //
Create time

Create mesh for time = 0

Read mesh in = 0.105471 s
Reading "snappyHexMeshDict"


Overall mesh bounding box  : (-0.3 -0.81 -0.3) (0.3 0.21 0.3)
Relative tolerance         : 1e-06
Absolute matching distance : 1.3268e-06

Reading refinement surfaces...
Read refinement surfaces in = 1.43415 s

Reading refinement regions...
Refinement level 4 for all cells inside innerCylinder
Refinement level 3 for all cells inside middleCylinder
Read refinement regions in = 0.007934 s

Reading features...
Read edgeMesh propeller-innerCylinder.eMesh
    points      : 120
    edges       : 120
    boundingBox : (-0.12 -0.08 -0.12) (0.12 0.06 0.12)

Refinement level according to distance to "propeller-innerCylinder.eMesh" (120 points, 120 edges).
    level 4 for all cells within 0 metre.
Read edgeMesh propeller-outerCylinder.eMesh
    points      : 100
    edges       : 100
    boundingBox : (-0.3 -0.8 -0.299408) (0.3 0.2 0.299408)

Refinement level according to distance to "propeller-outerCylinder.eMesh" (100 points, 100 edges).
    level 0 for all cells within 0 metre.
Read edgeMesh propeller.eMesh
    points      : 744
    edges       : 744
    boundingBox : (-0.1161 -0.117788 -0.1161) (0.1161 -0.0559023 0.1161)

Refinement level according to distance to "propeller.eMesh" (744 points, 744 edges).
    level 4 for all cells within 0 metre.
Read features in = 0.046109 s


Determining initial surface intersections
-----------------------------------------

Edge intersection testing:
    Number of edges             : 9264
    Number of edges to retest   : 9264
    Number of intersected edges : 1296
Calculated surface intersections in = 2.1135 s

Initial mesh : cells:2880  faces:9264  points:3549
Cells per refinement level:
    0	2880

Adding patches for surface regions
----------------------------------

Patch Type                Region                        
----- ----                ------                        
innerCylinder:

3     wall                innerCylinder                 
4     wall                innerCylinder_slave           

outerCylinder:

5     wall                outerCylinder                 
1     patch               inlet                         
2     patch               outlet                        

propeller:

6     wall                propeller                     

Added patches in = 0.058784 s

Selecting distributor hierarchical
Cell selection insidePoints: 1((0.01 -0.5 0.01))

Refinement phase
----------------

Found point (0.01 -0.5 0.01) in cell 36 on processor 3

Feature refinement iteration 0
------------------------------

Marked for refinement due to explicit features             : 7 cells.
Determined cells to refine in = 0.116924 s
Selected for feature refinement : 7 cells (out of 2880)
Edge intersection testing:
    Number of edges             : 9468
    Number of edges to retest   : 421
    Number of intersected edges : 1321
Refined mesh in = 0.144353 s
After refinement feature refinement iteration 0 : cells:2929  faces:9468  points:3672
Cells per refinement level:
    0	2873
    1	56
Skipping balancing since max unbalance 0.0122951 is less than allowable 0.1

Feature refinement iteration 1
------------------------------

Marked for refinement due to explicit features             : 7 cells.
Determined cells to refine in = 0.130102 s
Selected for feature refinement : 24 cells (out of 2929)
Edge intersection testing:
    Number of edges             : 10125
    Number of edges to retest   : 1241
    Number of intersected edges : 1468
Refined mesh in = 0.130265 s
After refinement feature refinement iteration 1 : cells:3097  faces:10125  points:4025
Cells per refinement level:
    0	2856
    1	185
    2	56
Skipping balancing since max unbalance 0.0478036 is less than allowable 0.1

Feature refinement iteration 2
------------------------------

Marked for refinement due to explicit features             : 10 cells.
Determined cells to refine in = 0.117218 s
Selected for feature refinement : 57 cells (out of 3097)
Edge intersection testing:
    Number of edges             : 11625
    Number of edges to retest   : 2780
    Number of intersected edges : 1656
Refined mesh in = 0.139256 s
After refinement feature refinement iteration 2 : cells:3496  faces:11625  points:4769
Cells per refinement level:
    0	2831
    1	363
    2	222
    3	80
Balanced mesh in = 0.305188 s
After balancing feature refinement iteration 2 : cells:3496  faces:11625  points:4769
Cells per refinement level:
    0	2831
    1	363
    2	222
    3	80

Feature refinement iteration 3
------------------------------

Marked for refinement due to explicit features             : 15 cells.
Determined cells to refine in = 0.139436 s
Selected for feature refinement : 85 cells (out of 3496)
Edge intersection testing:
    Number of edges             : 13806
    Number of edges to retest   : 4360
    Number of intersected edges : 1783
Refined mesh in = 0.150231 s
After refinement feature refinement iteration 3 : cells:4091  faces:13806  points:5816
Cells per refinement level:
    0	2815
    1	464
    2	411
    3	281
    4	120
Skipping balancing since max unbalance 0.0890411 is less than allowable 0.1

Feature refinement iteration 4
------------------------------

Marked for refinement due to explicit features             : 0 cells.
Determined cells to refine in = 0.206397 s
Selected for feature refinement : 0 cells (out of 4091)
Stopping refining since too few cells selected.


Surface refinement iteration 0
------------------------------

Marked for refinement due to surface intersection          : 1683 cells.
Determined cells to refine in = 0.011575 s
Selected for refinement : 1748 cells (out of 4091)
Edge intersection testing:
    Number of edges             : 55167
    Number of edges to retest   : 52967
    Number of intersected edges : 6602
Refined mesh in = 0.458413 s
After refinement surface refinement iteration 0 : cells:16327  faces:55167  points:22799
Cells per refinement level:
    0	1495
    1	10844
    2	1723
    3	1205
    4	900
    5	160
Skipping balancing since max unbalance 0.0686106 is less than allowable 0.1

Surface refinement iteration 1
------------------------------

Marked for refinement due to surface intersection          : 6665 cells.
Determined cells to refine in = 0.085988 s
Selected for refinement : 7025 cells (out of 16327)
Edge intersection testing:
    Number of edges             : 219555
    Number of edges to retest   : 211943
    Number of intersected edges : 25316
Refined mesh in = 1.56776 s
After refinement surface refinement iteration 1 : cells:65502  faces:219555  points:88884
Cells per refinement level:
    0	1249
    1	7259
    2	45510
    3	5820
    4	4640
    5	1024
Skipping balancing since max unbalance 0.0233893 is less than allowable 0.1

Surface refinement iteration 2
------------------------------

Marked for refinement due to surface intersection          : 5449 cells.
Determined cells to refine in = 0.200039 s
Selected for refinement : 5998 cells (out of 65502)
Edge intersection testing:
    Number of edges             : 356106
    Number of edges to retest   : 181363
    Number of intersected edges : 39773
Refined mesh in = 2.30979 s
After refinement surface refinement iteration 2 : cells:107488  faces:356106  points:141522
Cells per refinement level:
    0	1216
    1	7347
    2	44674
    3	21163
    4	24576
    5	8512
Skipping balancing since max unbalance 0.097983 is less than allowable 0.1

Surface refinement iteration 3
------------------------------

Marked for refinement due to surface intersection          : 12012 cells.
Determined cells to refine in = 0.309175 s
Selected for refinement : 12843 cells (out of 107488)
Edge intersection testing:
    Number of edges             : 646500
    Number of edges to retest   : 389278
    Number of intersected edges : 70580
Refined mesh in = 5.57501 s
After refinement surface refinement iteration 3 : cells:197389  faces:646500  points:251909
Cells per refinement level:
    0	1194
    1	7456
    2	44539
    3	17472
    4	94024
    5	32704
Balanced mesh in = 6.53763 s
After balancing surface refinement iteration 3 : cells:197389  faces:646500  points:251909
Cells per refinement level:
    0	1194
    1	7456
    2	44539
    3	17472
    4	94024
    5	32704

Surface refinement iteration 4
------------------------------

Marked for refinement due to surface intersection          : 14162 cells.
Determined cells to refine in = 0.374805 s
Selected for refinement : 15055 cells (out of 197389)
Edge intersection testing:
    Number of edges             : 990177
    Number of edges to retest   : 466524
    Number of intersected edges : 107377
Refined mesh in = 5.50429 s
After refinement surface refinement iteration 4 : cells:302774  faces:990177  points:383787
Cells per refinement level:
    0	1188
    1	7495
    2	44516
    3	17053
    4	89690
    5	142832
Balanced mesh in = 9.34346 s
After balancing surface refinement iteration 4 : cells:302774  faces:990177  points:383787
Cells per refinement level:
    0	1188
    1	7495
    2	44516
    3	17053
    4	89690
    5	142832

Surface refinement iteration 5
------------------------------

Marked for refinement due to surface intersection          : 588 cells.
Determined cells to refine in = 0.489182 s
Selected for refinement : 640 cells (out of 302774)
Edge intersection testing:
    Number of edges             : 1003773
    Number of edges to retest   : 47526
    Number of intersected edges : 107627
Refined mesh in = 3.97656 s
After refinement surface refinement iteration 5 : cells:307254  faces:1003773  points:388415
Cells per refinement level:
    0	1188
    1	7495
    2	44492
    3	17156
    4	89875
    5	147048
Skipping balancing since max unbalance 0.002096 is less than allowable 0.1

Surface refinement iteration 6
------------------------------

Marked for refinement due to surface intersection          : 3 cells.
Determined cells to refine in = 0.513455 s
Selected for refinement : 3 cells (out of 307254)
Edge intersection testing:
    Number of edges             : 1003827
    Number of edges to retest   : 330
    Number of intersected edges : 107627
Refined mesh in = 3.57111 s
After refinement surface refinement iteration 6 : cells:307275  faces:1003827  points:388427
Cells per refinement level:
    0	1188
    1	7495
    2	44492
    3	17156
    4	89872
    5	147072
Skipping balancing since max unbalance 0.0021219 is less than allowable 0.1

Surface refinement iteration 7
------------------------------

Marked for refinement due to surface intersection          : 0 cells.
Determined cells to refine in = 0.487097 s
Selected for refinement : 0 cells (out of 307275)
Stopping refining since too few cells selected.


Removing mesh beyond surface intersections
------------------------------------------

Selecting all cells in regions containing any of the points in 1((0.01 -0.5 0.01))
Selected: 288539 cells.
Edge intersection testing:
    Number of edges             : 963004
    Number of edges to retest   : 39722
    Number of intersected edges : 107140

Shell refinement iteration 0
----------------------------

Marked for refinement due to distance to explicit features : 0 cells.
Marked for refinement due to refinement shells             : 10921 cells.
Determined cells to refine in = 18.0748 s
Selected for internal refinement : 23121 cells (out of 288539)
Edge intersection testing:
    Number of edges             : 1444723
    Number of edges to retest   : 1038431
    Number of intersected edges : 109351
Refined mesh in = 8.76464 s
After refinement shell refinement iteration 0 : cells:450386  faces:1444723  points:539768
Cells per refinement level:
    0	480
    1	10308
    2	61672
    3	37606
    4	155888
    5	184432
Skipping balancing since max unbalance 0.000648336 is less than allowable 0.1

Shell refinement iteration 1
----------------------------

Marked for refinement due to distance to explicit features : 0 cells.
Marked for refinement due to refinement shells             : 13860 cells.
Determined cells to refine in = 2.40184 s
Selected for internal refinement : 15148 cells (out of 450386)
Skipping balancing since max unbalance 0.00140541 is less than allowable 0.1
After balancing shell refinement iteration 1 : cells:450386  faces:1444723  points:539768
Cells per refinement level:
    0	480
    1	10308
    2	61672
    3	37606
    4	155888
    5	184432
Edge intersection testing:
    Number of edges             : 1760296
    Number of edges to retest   : 518301
    Number of intersected edges : 109570
Refined mesh in = 8.01676 s
After refinement shell refinement iteration 1 : cells:556422  faces:1760296  points:643318
Cells per refinement level:
    0	152
    1	10700
    2	75844
    3	58591
    4	223367
    5	187768

Shell refinement iteration 2
----------------------------

Marked for refinement due to distance to explicit features : 0 cells.
Marked for refinement due to refinement shells             : 19176 cells.
Determined cells to refine in = 2.89189 s
Selected for internal refinement : 20178 cells (out of 556422)
Skipping balancing since max unbalance 0.00110081 is less than allowable 0.1
After balancing shell refinement iteration 2 : cells:556422  faces:1760296  points:643318
Cells per refinement level:
    0	152
    1	10700
    2	75844
    3	58591
    4	223367
    5	187768
Edge intersection testing:
    Number of edges             : 2185636
    Number of edges to retest   : 556740
    Number of intersected edges : 109570
Refined mesh in = 8.65073 s
After refinement shell refinement iteration 2 : cells:697668  faces:2185636  points:786308
Cells per refinement level:
    0	132
    1	9840
    2	67964
    3	183813
    4	248151
    5	187768

Shell refinement iteration 3
----------------------------

Marked for refinement due to distance to explicit features : 0 cells.
Marked for refinement due to refinement shells             : 1472 cells.
Determined cells to refine in = 3.96911 s
Selected for internal refinement : 1880 cells (out of 697668)
Skipping balancing since max unbalance 0.00108043 is less than allowable 0.1
After balancing shell refinement iteration 3 : cells:697668  faces:2185636  points:786308
Cells per refinement level:
    0	132
    1	9840
    2	67964
    3	183813
    4	248151
    5	187768
Edge intersection testing:
    Number of edges             : 2225500
    Number of edges to retest   : 99176
    Number of intersected edges : 109570
Refined mesh in = 8.33827 s
After refinement shell refinement iteration 3 : cells:710828  faces:2225500  points:799833
Cells per refinement level:
    0	100
    1	9720
    2	69500
    3	195589
    4	248151
    5	187768

Shell refinement iteration 4
----------------------------

Marked for refinement due to distance to explicit features : 0 cells.
Marked for refinement due to refinement shells             : 0 cells.
Determined cells to refine in = 4.17775 s
Selected for internal refinement : 300 cells (out of 710828)
Skipping balancing since max unbalance 0.00107725 is less than allowable 0.1
After balancing shell refinement iteration 4 : cells:710828  faces:2225500  points:799833
Cells per refinement level:
    0	100
    1	9720
    2	69500
    3	195589
    4	248151
    5	187768
Edge intersection testing:
    Number of edges             : 2231848
    Number of edges to retest   : 18864
    Number of intersected edges : 109570
Refined mesh in = 8.46639 s
After refinement shell refinement iteration 4 : cells:712928  faces:2231848  points:802017
Cells per refinement level:
    0	80
    1	9600
    2	71740
    3	195589
    4	248151
    5	187768

Shell refinement iteration 5
----------------------------

Marked for refinement due to distance to explicit features : 0 cells.
Marked for refinement due to refinement shells             : 0 cells.
Determined cells to refine in = 4.25033 s
Selected for internal refinement : 0 cells (out of 712928)
Stopping refining since too few cells selected.


Dangling coarse cells refinement iteration 0
--------------------------------------------

Determined cells to refine in = 0.049992 s
Selected for refinement : 0 cells (out of 712928)
Stopping refining since too few cells selected.


Dangling coarse cells refinement iteration 0
--------------------------------------------

Determined cells to refine in = 0.040668 s
Selected for refinement : 0 cells (out of 712928)
Stopping refining since too few cells selected.


Splitting mesh at surface intersections
---------------------------------------

Introducing baffles for 109570 faces that are intersected by the surface.

Edge intersection testing:
    Number of edges             : 2310334
    Number of edges to retest   : 455592
    Number of intersected edges : 188056
Created baffles in = 10.6993 s


After introducing baffles : cells:712928  faces:2310334  points:802017
Cells per refinement level:
    0	80
    1	9600
    2	71740
    3	195589
    4	248151
    5	187768

Introducing baffles to block off problem cells
----------------------------------------------

markFacesOnProblemCells : marked 85466 additional internal faces to be converted into baffles.
Analyzed problem cells in = 2.84653 s


Introducing baffles to delete problem cells.

Edge intersection testing:
    Number of edges             : 2395800
    Number of edges to retest   : 290028
    Number of intersected edges : 188377
Created baffles in = 10.3368 s


After introducing baffles : cells:712928  faces:2395800  points:802185
Cells per refinement level:
    0	80
    1	9600
    2	71740
    3	195589
    4	248151
    5	187768

Remove unreachable sections of mesh
-----------------------------------

Keeping all cells in regions containing any point in 1((0.01 -0.5 0.01))
Selected for keeping : 623792 cells.
Edge intersection testing:
    Number of edges             : 1972225
    Number of edges to retest   : 0
    Number of intersected edges : 107879
Split mesh in = 35.2468 s


After subsetting : cells:623792  faces:1972225  points:723710
Cells per refinement level:
    0	0
    1	7672
    2	50516
    3	195497
    4	244967
    5	125140

Introducing zones for interfaces
--------------------------------

Surface : innerCylinder
    faceZone : innerCylinder
    cellZone : innerCylinder
Found 1 closed, named surfaces. Assigning cells in/outside these surfaces to the corresponding cellZone.

Walking from locations-in-mesh 1((0.01 -0.5 0.01)) to assign cellZones - crossing a faceZone face changes cellZone

Found point (0.01 -0.5 0.01) in global region 0 out of 2 regions.
Only selecting zone faces in between different cellZones.

CellZones:
    innerCylinder	size:250566

FaceZones:
    innerCylinder	size:26245

Edge intersection testing:
    Number of edges             : 1972225
    Number of edges to retest   : 0
    Number of intersected edges : 107879

Handling cells with snap problems
---------------------------------

Introducing baffles for 107879 faces that are intersected by the surface.

Edge intersection testing:
    Number of edges             : 1972225
    Number of edges to retest   : 240066
    Number of intersected edges : 107879
Created baffles in = 50.728 s


After introducing baffles : cells:623792  faces:1972225  points:723710
Cells per refinement level:
    0	0
    1	7672
    2	50516
    3	195497
    4	244967
    5	125140

Introducing baffles to block off problem cells
----------------------------------------------

markFacesOnProblemCells : marked 0 additional internal faces to be converted into baffles.
Analyzed problem cells in = 2.59716 s


Introducing baffles to delete problem cells.

Edge intersection testing:
    Number of edges             : 1972225
    Number of edges to retest   : 0
    Number of intersected edges : 107879
Created baffles in = 7.23459 s


After introducing baffles : cells:623792  faces:1972225  points:723710
Cells per refinement level:
    0	0
    1	7672
    2	50516
    3	195497
    4	244967
    5	125140

Remove unreachable sections of mesh
-----------------------------------

Split mesh in = 27.9116 s


After subsetting : cells:623792  faces:1972225  points:723710
Cells per refinement level:
    0	0
    1	7672
    2	50516
    3	195497
    4	244967
    5	125140

Merge free-standing baffles
---------------------------

freeStandingBaffles : detected 136 free-standing baffles out of 144

freeStandingBaffles : detected 0 planar (within 30 degrees) free-standing baffles out of 136

Detected free-standing baffles : 0
Merged free-standing baffles in = 1.10228 s


dupNonManifoldPoints : Found : 1048 non-manifold points (out of 746749)
Edge intersection testing:
    Number of edges             : 1972225
    Number of edges to retest   : 0
    Number of intersected edges : 107879
Detected unsplittable baffles : 0

Merge refined boundary faces
----------------------------

Merging 0 sets of faces.

No faces merged ...

Merging all points on surface that
- are used by only two boundary faces and
- make an angle with a cosine of more than 0.707107.

No straight edges simplified and no points removed ...

Doing final balancing
---------------------

Found 26245 zoned faces to keep together.
Found 0 separated coupled faces to keep together.
Refined mesh : cells:623792  faces:1972225  points:724762
Cells per refinement level:
    0	0
    1	7672
    2	50516
    3	195497
    4	244967
    5	125140
Writing mesh to time constant
Wrote mesh in = 33.1894 s.
Mesh refined in = 302.879 s.

Morphing phase
--------------

Converting zoned faces into baffles ...
For zone innerCylinder found patches innerCylinder and innerCylinder_slave
Edge intersection testing:
    Number of edges             : 1998454
    Number of edges to retest   : 185234
    Number of intersected edges : 133788
Created 26229 baffles in = 9.60221 s



Snapping to features in 10 iterations ...
Constructing mesh displacer ...
Using mesh parameters 
{
    maxNonOrtho     65;
    maxBoundarySkewness 20;
    maxInternalSkewness 4;
    maxConcave      80;
    minVol          -1e+30;
    minTetQuality   -1;
    minTwist        0.01;
    minDeterminant  0.001;
    minFaceWeight   0.05;
    minVolRatio     0.01;
    nSmoothScale    4;
    errorReduction  0.75;
    relaxed
    {
        maxNonOrtho     75;
    }
}


Checking initial mesh ...
Checking faces in error :
    non-orthogonality > 65  degrees                        : 0
    faces with face-decomposition tet quality < -1         : 0
    faces with concavity > 80  degrees                     : 0
    faces with skewness > 4   (internal) or 20  (boundary) : 0
    faces with interpolation weights (0..1)  < 0.05        : 0
    faces with volume ratio of neighbour cells < 0.01      : 0
    faces with face twist < 0.01                           : 0
    faces on cells with determinant < 0.001                : 0
Detected 0 illegal faces (concave, zero area or negative cell pyramid volume)
Checked initial mesh in = 11.8864 s


Smoothing patch points ...
Smoothing iteration 0
Found 2100 non-manifold point(s).

Scaling iteration 0
Moving mesh using displacement scaling : min:1  max:1
Checking faces in error :
    non-orthogonality > 65  degrees                        : 0
    faces with face-decomposition tet quality < -1         : 0
    faces with concavity > 80  degrees                     : 0
    faces with skewness > 4   (internal) or 20  (boundary) : 0
    faces with interpolation weights (0..1)  < 0.05        : 0
    faces with volume ratio of neighbour cells < 0.01      : 0
    faces with face twist < 0.01                           : 48
    faces on cells with determinant < 0.001                : 0

Scaling iteration 1
Moving mesh using displacement scaling : min:0.75  max:1
Checking faces in error :
    non-orthogonality > 65  degrees                        : 0
    faces with face-decomposition tet quality < -1         : 0
    faces with concavity > 80  degrees                     : 0
    faces with skewness > 4   (internal) or 20  (boundary) : 0
    faces with interpolation weights (0..1)  < 0.05        : 0
    faces with volume ratio of neighbour cells < 0.01      : 0
    faces with face twist < 0.01                           : 0
    faces on cells with determinant < 0.001                : 0
Successfully moved mesh

Smoothing iteration 1
Found 0 non-manifold point(s).

Scaling iteration 0
Moving mesh using displacement scaling : min:1  max:1
Checking faces in error :
    non-orthogonality > 65  degrees                        : 0
    faces with face-decomposition tet quality < -1         : 0
    faces with concavity > 80  degrees                     : 0
    faces with skewness > 4   (internal) or 20  (boundary) : 0
    faces with interpolation weights (0..1)  < 0.05        : 0
    faces with volume ratio of neighbour cells < 0.01      : 0
    faces with face twist < 0.01                           : 0
    faces on cells with determinant < 0.001                : 0
Successfully moved mesh

Smoothing iteration 2
Found 0 non-manifold point(s).

Scaling iteration 0
Moving mesh using displacement scaling : min:1  max:1
Checking faces in error :
    non-orthogonality > 65  degrees                        : 0
    faces with face-decomposition tet quality < -1         : 0
    faces with concavity > 80  degrees                     : 0
    faces with skewness > 4   (internal) or 20  (boundary) : 0
    faces with interpolation weights (0..1)  < 0.05        : 0
    faces with volume ratio of neighbour cells < 0.01      : 0
    faces with face twist < 0.01                           : 0
    faces on cells with determinant < 0.001                : 0
Successfully moved mesh

Patch points smoothed in = 64.9891 s



Morph iteration 0
-----------------
Calculating patchDisplacement as distance to nearest surface point ...
Wanted displacement : average:0.00072098 min:1.64601e-10 max:0.0083267
Calculated surface displacement in = 0.740496 s


Detecting near surfaces ...
Overriding nearest with intersection of close gaps at 48 out of 109814 points.
Overriding displacement on features :
   implicit features    : true
   explicit features    : false
   multi-patch features : true

--> FOAM Warning : 
    From function void Foam::snappySnapDriver::calcNearestFace(Foam::label, const indirectPrimitivePatch&, const scalarField&, Foam::vectorField&, Foam::vectorField&, Foam::labelList&, Foam::vectorField&) const
    in file snappyHexMeshDriver/snappySnapDriverFeature.C at line 397
    Did not find surface near face centre (-0.205003 -0.765308 -0.211254)
--> FOAM Warning : 
    From function void Foam::snappySnapDriver::calcNearestFace(Foam::label, const indirectPrimitivePatch&, const scalarField&, Foam::vectorField&, Foam::vectorField&, Foam::labelList&, Foam::vectorField&) const
    in file snappyHexMeshDriver/snappySnapDriverFeature.C at line 397
    Did not find surface near face centre (-0.211254 -0.765308 -0.205003)
--> FOAM Warning : 
    From function void Foam::snappySnapDriver::calcNearestFace(Foam::label, const indirectPrimitivePatch&, const scalarField&, Foam::vectorField&, Foam::vectorField&, Foam::labelList&, Foam::vectorField&) const
    in file snappyHexMeshDriver/snappySnapDriverFeature.C at line 397
    Did not find surface near face centre (-0.205038 -0.752625 -0.211288)
--> FOAM Warning : 
    From function void Foam::snappySnapDriver::calcNearestFace(Foam::label, const indirectPrimitivePatch&, const scalarField&, Foam::vectorField&, Foam::vectorField&, Foam::labelList&, Foam::vectorField&) const
    in file snappyHexMeshDriver/snappySnapDriverFeature.C at line 397
    Did not find surface near face centre (-0.211288 -0.752625 -0.205038)
--> FOAM Warning : 
    From function void Foam::snappySnapDriver::calcNearestFace(Foam::label, const indirectPrimitivePatch&, const scalarField&, Foam::vectorField&, Foam::vectorField&, Foam::labelList&, Foam::vectorField&) const
    in file snappyHexMeshDriver/snappySnapDriverFeature.C at line 397
    Did not find surface near face centre (-0.205038 -0.714375 -0.211288)
--> FOAM Warning : 
    From function void Foam::snappySnapDriver::calcNearestFace(Foam::label, const indirectPrimitivePatch&, const scalarField&, Foam::vectorField&, Foam::vectorField&, Foam::labelList&, Foam::vectorField&) const
    in file snappyHexMeshDriver/snappySnapDriverFeature.C at line 397
    Did not find surface near face centre (-0.211288 -0.714375 -0.205038)
--> FOAM Warning : 
    From function void Foam::snappySnapDriver::calcNearestFace(Foam::label, const indirectPrimitivePatch&, const scalarField&, Foam::vectorField&, Foam::vectorField&, Foam::labelList&, Foam::vectorField&) const
    in file snappyHexMeshDriver/snappySnapDriverFeature.C at line 397
    Did not find surface near face centre (-0.205038 -0.701625 -0.211288)
--> FOAM Warning : 
    From function void Foam::snappySnapDriver::calcNearestFace(Foam::label, const indirectPrimitivePatch&, const scalarField&, Foam::vectorField&, Foam::vectorField&, Foam::labelList&, Foam::vectorField&) const
    in file snappyHexMeshDriver/snappySnapDriverFeature.C at line 397
    Did not find surface near face centre (-0.211288 -0.701625 -0.205038)
--> FOAM Warning : 
    From function void Foam::snappySnapDriver::calcNearestFace(Foam::label, const indirectPrimitivePatch&, const scalarField&, Foam::vectorField&, Foam::vectorField&, Foam::labelList&, Foam::vectorField&) const
    in file snappyHexMeshDriver/snappySnapDriverFeature.C at line 397
    Did not find surface near face centre (-0.205038 -0.663375 -0.211288)
--> FOAM Warning : 
    From function void Foam::snappySnapDriver::calcNearestFace(Foam::label, const indirectPrimitivePatch&, const scalarField&, Foam::vectorField&, Foam::vectorField&, Foam::labelList&, Foam::vectorField&) const
    in file snappyHexMeshDriver/snappySnapDriverFeature.C at line 397
    Did not find surface near face centre (-0.211288 -0.663375 -0.205038)
--> FOAM Warning : 
    From function void Foam::snappySnapDriver::calcNearestFace(Foam::label, const indirectPrimitivePatch&, const scalarField&, Foam::vectorField&, Foam::vectorField&, Foam::labelList&, Foam::vectorField&) const
    in file snappyHexMeshDriver/snappySnapDriverFeature.C at line 397
    Did not find surface near face centre (-0.205038 -0.650625 -0.211288)
--> FOAM Warning : 
    From function void Foam::snappySnapDriver::calcNearestFace(Foam::label, const indirectPrimitivePatch&, const scalarField&, Foam::vectorField&, Foam::vectorField&, Foam::labelList&, Foam::vectorField&) const
    in file snappyHexMeshDriver/snappySnapDriverFeature.C at line 397
    Did not find surface near face centre (-0.211288 -0.650625 -0.205038)
--> FOAM Warning : 
    From function void Foam::snappySnapDriver::calcNearestFace(Foam::label, const indirectPrimitivePatch&, const scalarField&, Foam::vectorField&, Foam::vectorField&, Foam::labelList&, Foam::vectorField&) const
    in file snappyHexMeshDriver/snappySnapDriverFeature.C at line 397
    Did not find surface near face centre (-0.205038 -0.612375 -0.211288)
--> FOAM Warning : 
    From function void Foam::snappySnapDriver::calcNearestFace(Foam::label, const indirectPrimitivePatch&, const scalarField&, Foam::vectorField&, Foam::vectorField&, Foam::labelList&, Foam::vectorField&) const
    in file snappyHexMeshDriver/snappySnapDriverFeature.C at line 397
    Did not find surface near face centre (-0.211288 -0.612375 -0.205038)
--> FOAM Warning : 
    From function void Foam::snappySnapDriver::calcNearestFace(Foam::label, const indirectPrimitivePatch&, const scalarField&, Foam::vectorField&, Foam::vectorField&, Foam::labelList&, Foam::vectorField&) const
    in file snappyHexMeshDriver/snappySnapDriverFeature.C at line 397
    Did not find surface near face centre (-0.205038 -0.599625 -0.211288)
--> FOAM Warning : 
    From function void Foam::snappySnapDriver::calcNearestFace(Foam::label, const indirectPrimitivePatch&, const scalarField&, Foam::vectorField&, Foam::vectorField&, Foam::labelList&, Foam::vectorField&) const
    in file snappyHexMeshDriver/snappySnapDriverFeature.C at line 397
    Did not find surface near face centre (-0.211288 -0.599625 -0.205038)
--> FOAM Warning : 
    From function void Foam::snappySnapDriver::calcNearestFace(Foam::label, const indirectPrimitivePatch&, const scalarField&, Foam::vectorField&, Foam::vectorField&, Foam::labelList&, Foam::vectorField&) const
    in file snappyHexMeshDriver/snappySnapDriverFeature.C at line 397
    Did not find surface near face centre (-0.205038 -0.561375 -0.211288)
--> FOAM Warning : 
    From function void Foam::snappySnapDriver::calcNearestFace(Foam::label, const indirectPrimitivePatch&, const scalarField&, Foam::vectorField&, Foam::vectorField&, Foam::labelList&, Foam::vectorField&) const
    in file snappyHexMeshDriver/snappySnapDriverFeature.C at line 397
    Did not find surface near face centre (-0.211288 -0.561375 -0.205038)
--> FOAM Warning : 
    From function void Foam::snappySnapDriver::calcNearestFace(Foam::label, const indirectPrimitivePatch&, const scalarField&, Foam::vectorField&, Foam::vectorField&, Foam::labelList&, Foam::vectorField&) const
    in file snappyHexMeshDriver/snappySnapDriverFeature.C at line 397
    Did not find surface near face centre (-0.205038 -0.548625 -0.211288)
--> FOAM Warning : 
    From function void Foam::snappySnapDriver::calcNearestFace(Foam::label, const indirectPrimitivePatch&, const scalarField&, Foam::vectorField&, Foam::vectorField&, Foam::labelList&, Foam::vectorField&) const
    in file snappyHexMeshDriver/snappySnapDriverFeature.C at line 397
    Did not find surface near face centre (-0.211288 -0.548625 -0.205038)
--> FOAM Warning : 
    From function void Foam::snappySnapDriver::calcNearestFace(Foam::label, const indirectPrimitivePatch&, const scalarField&, Foam::vectorField&, Foam::vectorField&, Foam::labelList&, Foam::vectorField&) const
    in file snappyHexMeshDriver/snappySnapDriverFeature.C at line 397
    Did not find surface near face centre (-0.205038 -0.510375 -0.211288)
--> FOAM Warning : 
    From function void Foam::snappySnapDriver::calcNearestFace(Foam::label, const indirectPrimitivePatch&, const scalarField&, Foam::vectorField&, Foam::vectorField&, Foam::labelList&, Foam::vectorField&) const
    in file snappyHexMeshDriver/snappySnapDriverFeature.C at line 397
    Did not find surface near face centre (-0.211288 -0.510375 -0.205038)
--> FOAM Warning : 
    From function void Foam::snappySnapDriver::calcNearestFace(Foam::label, const indirectPrimitivePatch&, const scalarField&, Foam::vectorField&, Foam::vectorField&, Foam::labelList&, Foam::vectorField&) const
    in file snappyHexMeshDriver/snappySnapDriverFeature.C at line 397
    Did not find surface near face centre (-0.205038 -0.497625 -0.211288)
--> FOAM Warning : 
    From function void Foam::snappySnapDriver::calcNearestFace(Foam::label, const indirectPrimitivePatch&, const scalarField&, Foam::vectorField&, Foam::vectorField&, Foam::labelList&, Foam::vectorField&) const
    in file snappyHexMeshDriver/snappySnapDriverFeature.C at line 397
    Did not find surface near face centre (-0.211288 -0.497625 -0.205038)
--> FOAM Warning : 
    From function void Foam::snappySnapDriver::calcNearestFace(Foam::label, const indirectPrimitivePatch&, const scalarField&, Foam::vectorField&, Foam::vectorField&, Foam::labelList&, Foam::vectorField&) const
    in file snappyHexMeshDriver/snappySnapDriverFeature.C at line 397
    Did not find surface near face centre (-0.205038 -0.459375 -0.211288)
--> FOAM Warning : 
    From function void Foam::snappySnapDriver::calcNearestFace(Foam::label, const indirectPrimitivePatch&, const scalarField&, Foam::vectorField&, Foam::vectorField&, Foam::labelList&, Foam::vectorField&) const
    in file snappyHexMeshDriver/snappySnapDriverFeature.C at line 397
    Did not find surface near face centre (-0.211288 -0.459375 -0.205038)
--> FOAM Warning : 
    From function void Foam::snappySnapDriver::calcNearestFace(Foam::label, const indirectPrimitivePatch&, const scalarField&, Foam::vectorField&, Foam::vectorField&, Foam::labelList&, Foam::vectorField&) const
    in file snappyHexMeshDriver/snappySnapDriverFeature.C at line 397
    Did not find surface near face centre (-0.205038 -0.446625 -0.211288)
--> FOAM Warning : 
    From function void Foam::snappySnapDriver::calcNearestFace(Foam::label, const indirectPrimitivePatch&, const scalarField&, Foam::vectorField&, Foam::vectorField&, Foam::labelList&, Foam::vectorField&) const
    in file snappyHexMeshDriver/snappySnapDriverFeature.C at line 397
    Did not find surface near face centre (-0.211288 -0.446625 -0.205038)
--> FOAM Warning : 
    From function void Foam::snappySnapDriver::calcNearestFace(Foam::label, const indirectPrimitivePatch&, const scalarField&, Foam::vectorField&, Foam::vectorField&, Foam::labelList&, Foam::vectorField&) const
    in file snappyHexMeshDriver/snappySnapDriverFeature.C at line 397
    Did not find surface near face centre (-0.205038 -0.408375 -0.211288)
--> FOAM Warning : 
    From function void Foam::snappySnapDriver::calcNearestFace(Foam::label, const indirectPrimitivePatch&, const scalarField&, Foam::vectorField&, Foam::vectorField&, Foam::labelList&, Foam::vectorField&) const
    in file snappyHexMeshDriver/snappySnapDriverFeature.C at line 397
    Did not find surface near face centre (-0.211288 -0.408375 -0.205038)
--> FOAM Warning : 
    From function void Foam::snappySnapDriver::calcNearestFace(Foam::label, const indirectPrimitivePatch&, const scalarField&, Foam::vectorField&, Foam::vectorField&, Foam::labelList&, Foam::vectorField&) const
    in file snappyHexMeshDriver/snappySnapDriverFeature.C at line 397
    Did not find surface near face centre (-0.205038 -0.395625 -0.211288)
--> FOAM Warning : 
    From function void Foam::snappySnapDriver::calcNearestFace(Foam::label, const indirectPrimitivePatch&, const scalarField&, Foam::vectorField&, Foam::vectorField&, Foam::labelList&, Foam::vectorField&) const
    in file snappyHexMeshDriver/snappySnapDriverFeature.C at line 397
    Did not find surface near face centre (-0.211288 -0.395625 -0.205038)
--> FOAM Warning : 
    From function void Foam::snappySnapDriver::calcNearestFace(Foam::label, const indirectPrimitivePatch&, const scalarField&, Foam::vectorField&, Foam::vectorField&, Foam::labelList&, Foam::vectorField&) const
    in file snappyHexMeshDriver/snappySnapDriverFeature.C at line 397
    Did not find surface near face centre (-0.205038 -0.357375 -0.211288)
--> FOAM Warning : 
    From function void Foam::snappySnapDriver::calcNearestFace(Foam::label, const indirectPrimitivePatch&, const scalarField&, Foam::vectorField&, Foam::vectorField&, Foam::labelList&, Foam::vectorField&) const
    in file snappyHexMeshDriver/snappySnapDriverFeature.C at line 397
    Did not find surface near face centre (-0.211288 -0.357375 -0.205038)
--> FOAM Warning : 
    From function void Foam::snappySnapDriver::calcNearestFace(Foam::label, const indirectPrimitivePatch&, const scalarField&, Foam::vectorField&, Foam::vectorField&, Foam::labelList&, Foam::vectorField&) const
    in file snappyHexMeshDriver/snappySnapDriverFeature.C at line 397
    Did not find surface near face centre (-0.205038 -0.344625 -0.211288)
--> FOAM Warning : 
    From function void Foam::snappySnapDriver::calcNearestFace(Foam::label, const indirectPrimitivePatch&, const scalarField&, Foam::vectorField&, Foam::vectorField&, Foam::labelList&, Foam::vectorField&) const
    in file snappyHexMeshDriver/snappySnapDriverFeature.C at line 397
    Did not find surface near face centre (-0.211288 -0.344625 -0.205038)
--> FOAM Warning : 
    From function void Foam::snappySnapDriver::calcNearestFace(Foam::label, const indirectPrimitivePatch&, const scalarField&, Foam::vectorField&, Foam::vectorField&, Foam::labelList&, Foam::vectorField&) const
    in file snappyHexMeshDriver/snappySnapDriverFeature.C at line 397
    Did not find surface near face centre (-0.205038 -0.306375 -0.211288)
--> FOAM Warning : 
    From function void Foam::snappySnapDriver::calcNearestFace(Foam::label, const indirectPrimitivePatch&, const scalarField&, Foam::vectorField&, Foam::vectorField&, Foam::labelList&, Foam::vectorField&) const
    in file snappyHexMeshDriver/snappySnapDriverFeature.C at line 397
    Did not find surface near face centre (-0.211288 -0.306375 -0.205038)
--> FOAM Warning : 
    From function void Foam::snappySnapDriver::calcNearestFace(Foam::label, const indirectPrimitivePatch&, const scalarField&, Foam::vectorField&, Foam::vectorField&, Foam::labelList&, Foam::vectorField&) const
    in file snappyHexMeshDriver/snappySnapDriverFeature.C at line 397
    Did not find surface near face centre (-0.205038 -0.293625 -0.211288)
--> FOAM Warning : 
    From function void Foam::snappySnapDriver::calcNearestFace(Foam::label, const indirectPrimitivePatch&, const scalarField&, Foam::vectorField&, Foam::vectorField&, Foam::labelList&, Foam::vectorField&) const
    in file snappyHexMeshDriver/snappySnapDriverFeature.C at line 397
    Did not find surface near face centre (-0.211288 -0.293625 -0.205038)
--> FOAM Warning : 
    From function void Foam::snappySnapDriver::calcNearestFace(Foam::label, const indirectPrimitivePatch&, const scalarField&, Foam::vectorField&, Foam::vectorField&, Foam::labelList&, Foam::vectorField&) const
    in file snappyHexMeshDriver/snappySnapDriverFeature.C at line 397
    Did not find surface near face centre (-0.205038 -0.255375 -0.211288)
--> FOAM Warning : 
    From function void Foam::snappySnapDriver::calcNearestFace(Foam::label, const indirectPrimitivePatch&, const scalarField&, Foam::vectorField&, Foam::vectorField&, Foam::labelList&, Foam::vectorField&) const
    in file snappyHexMeshDriver/snappySnapDriverFeature.C at line 397
    Did not find surface near face centre (-0.211288 -0.255375 -0.205038)
--> FOAM Warning : 
    From function void Foam::snappySnapDriver::calcNearestFace(Foam::label, const indirectPrimitivePatch&, const scalarField&, Foam::vectorField&, Foam::vectorField&, Foam::labelList&, Foam::vectorField&) const
    in file snappyHexMeshDriver/snappySnapDriverFeature.C at line 397
    Did not find surface near face centre (-0.205038 -0.242625 -0.211288)
--> FOAM Warning : 
    From function void Foam::snappySnapDriver::calcNearestFace(Foam::label, const indirectPrimitivePatch&, const scalarField&, Foam::vectorField&, Foam::vectorField&, Foam::labelList&, Foam::vectorField&) const
    in file snappyHexMeshDriver/snappySnapDriverFeature.C at line 397
    Did not find surface near face centre (-0.211288 -0.242625 -0.205038)
--> FOAM Warning : 
    From function void Foam::snappySnapDriver::calcNearestFace(Foam::label, const indirectPrimitivePatch&, const scalarField&, Foam::vectorField&, Foam::vectorField&, Foam::labelList&, Foam::vectorField&) const
    in file snappyHexMeshDriver/snappySnapDriverFeature.C at line 397
    Did not find surface near face centre (-0.205038 -0.204375 -0.211288)
--> FOAM Warning : 
    From function void Foam::snappySnapDriver::calcNearestFace(Foam::label, const indirectPrimitivePatch&, const scalarField&, Foam::vectorField&, Foam::vectorField&, Foam::labelList&, Foam::vectorField&) const
    in file snappyHexMeshDriver/snappySnapDriverFeature.C at line 397
    Did not find surface near face centre (-0.211288 -0.204375 -0.205038)
--> FOAM Warning : 
    From function void Foam::snappySnapDriver::calcNearestFace(Foam::label, const indirectPrimitivePatch&, const scalarField&, Foam::vectorField&, Foam::vectorField&, Foam::labelList&, Foam::vectorField&) const
    in file snappyHexMeshDriver/snappySnapDriverFeature.C at line 397
    Did not find surface near face centre (-0.205038 -0.191625 -0.211288)
--> FOAM Warning : 
    From function void Foam::snappySnapDriver::calcNearestFace(Foam::label, const indirectPrimitivePatch&, const scalarField&, Foam::vectorField&, Foam::vectorField&, Foam::labelList&, Foam::vectorField&) const
    in file snappyHexMeshDriver/snappySnapDriverFeature.C at line 397
    Did not find surface near face centre (-0.211288 -0.191625 -0.205038)
--> FOAM Warning : 
    From function void Foam::snappySnapDriver::calcNearestFace(Foam::label, const indirectPrimitivePatch&, const scalarField&, Foam::vectorField&, Foam::vectorField&, Foam::labelList&, Foam::vectorField&) const
    in file snappyHexMeshDriver/snappySnapDriverFeature.C at line 397
    Did not find surface near face centre (-0.205038 -0.153375 -0.211288)
--> FOAM Warning : 
    From function void Foam::snappySnapDriver::calcNearestFace(Foam::label, const indirectPrimitivePatch&, const scalarField&, Foam::vectorField&, Foam::vectorField&, Foam::labelList&, Foam::vectorField&) const
    in file snappyHexMeshDriver/snappySnapDriverFeature.C at line 397
    Did not find surface near face centre (-0.211288 -0.153375 -0.205038)
--> FOAM Warning : 
    From function void Foam::snappySnapDriver::calcNearestFace(Foam::label, const indirectPrimitivePatch&, const scalarField&, Foam::vectorField&, Foam::vectorField&, Foam::labelList&, Foam::vectorField&) const
    in file snappyHexMeshDriver/snappySnapDriverFeature.C at line 397
    Did not find surface near face centre (-0.205038 -0.140625 -0.211288)
--> FOAM Warning : 
    From function void Foam::snappySnapDriver::calcNearestFace(Foam::label, const indirectPrimitivePatch&, const scalarField&, Foam::vectorField&, Foam::vectorField&, Foam::labelList&, Foam::vectorField&) const
    in file snappyHexMeshDriver/snappySnapDriverFeature.C at line 397
    Did not find surface near face centre (-0.211288 -0.140625 -0.205038)
--> FOAM Warning : 
    From function void Foam::snappySnapDriver::calcNearestFace(Foam::label, const indirectPrimitivePatch&, const scalarField&, Foam::vectorField&, Foam::vectorField&, Foam::labelList&, Foam::vectorField&) const
    in file snappyHexMeshDriver/snappySnapDriverFeature.C at line 397
    Did not find surface near face centre (-0.205038 -0.102375 -0.211288)
--> FOAM Warning : 
    From function void Foam::snappySnapDriver::calcNearestFace(Foam::label, const indirectPrimitivePatch&, const scalarField&, Foam::vectorField&, Foam::vectorField&, Foam::labelList&, Foam::vectorField&) const
    in file snappyHexMeshDriver/snappySnapDriverFeature.C at line 397
    Did not find surface near face centre (-0.211288 -0.102375 -0.205038)
--> FOAM Warning : 
    From function void Foam::snappySnapDriver::calcNearestFace(Foam::label, const indirectPrimitivePatch&, const scalarField&, Foam::vectorField&, Foam::vectorField&, Foam::labelList&, Foam::vectorField&) const
    in file snappyHexMeshDriver/snappySnapDriverFeature.C at line 397
    Did not find surface near face centre (-0.205038 -0.089625 -0.211288)
--> FOAM Warning : 
    From function void Foam::snappySnapDriver::calcNearestFace(Foam::label, const indirectPrimitivePatch&, const scalarField&, Foam::vectorField&, Foam::vectorField&, Foam::labelList&, Foam::vectorField&) const
    in file snappyHexMeshDriver/snappySnapDriverFeature.C at line 397
    Did not find surface near face centre (-0.211288 -0.089625 -0.205038)
--> FOAM Warning : 
    From function void Foam::snappySnapDriver::calcNearestFace(Foam::label, const indirectPrimitivePatch&, const scalarField&, Foam::vectorField&, Foam::vectorField&, Foam::labelList&, Foam::vectorField&) const
    in file snappyHexMeshDriver/snappySnapDriverFeature.C at line 397
    Did not find surface near face centre (-0.205038 -0.051375 -0.211288)
--> FOAM Warning : 
    From function void Foam::snappySnapDriver::calcNearestFace(Foam::label, const indirectPrimitivePatch&, const scalarField&, Foam::vectorField&, Foam::vectorField&, Foam::labelList&, Foam::vectorField&) const
    in file snappyHexMeshDriver/snappySnapDriverFeature.C at line 397
    Did not find surface near face centre (-0.211288 -0.051375 -0.205038)
--> FOAM Warning : 
    From function void Foam::snappySnapDriver::calcNearestFace(Foam::label, const indirectPrimitivePatch&, const scalarField&, Foam::vectorField&, Foam::vectorField&, Foam::labelList&, Foam::vectorField&) const
    in file snappyHexMeshDriver/snappySnapDriverFeature.C at line 397
    Did not find surface near face centre (-0.205038 -0.038625 -0.211288)
--> FOAM Warning : 
    From function void Foam::snappySnapDriver::calcNearestFace(Foam::label, const indirectPrimitivePatch&, const scalarField&, Foam::vectorField&, Foam::vectorField&, Foam::labelList&, Foam::vectorField&) const
    in file snappyHexMeshDriver/snappySnapDriverFeature.C at line 397
    Did not find surface near face centre (-0.211288 -0.038625 -0.205038)
--> FOAM Warning : 
    From function void Foam::snappySnapDriver::calcNearestFace(Foam::label, const indirectPrimitivePatch&, const scalarField&, Foam::vectorField&, Foam::vectorField&, Foam::labelList&, Foam::vectorField&) const
    in file snappyHexMeshDriver/snappySnapDriverFeature.C at line 397
    Did not find surface near face centre (-0.205038 -0.000375 -0.211288)
--> FOAM Warning : 
    From function void Foam::snappySnapDriver::calcNearestFace(Foam::label, const indirectPrimitivePatch&, const scalarField&, Foam::vectorField&, Foam::vectorField&, Foam::labelList&, Foam::vectorField&) const
    in file snappyHexMeshDriver/snappySnapDriverFeature.C at line 397
    Did not find surface near face centre (-0.211288 -0.000375 -0.205038)
--> FOAM Warning : 
    From function void Foam::snappySnapDriver::calcNearestFace(Foam::label, const indirectPrimitivePatch&, const scalarField&, Foam::vectorField&, Foam::vectorField&, Foam::labelList&, Foam::vectorField&) const
    in file snappyHexMeshDriver/snappySnapDriverFeature.C at line 397
    Did not find surface near face centre (-0.205038 0.012375 -0.211288)
--> FOAM Warning : 
    From function void Foam::snappySnapDriver::calcNearestFace(Foam::label, const indirectPrimitivePatch&, const scalarField&, Foam::vectorField&, Foam::vectorField&, Foam::labelList&, Foam::vectorField&) const
    in file snappyHexMeshDriver/snappySnapDriverFeature.C at line 397
    Did not find surface near face centre (-0.211288 0.012375 -0.205038)
--> FOAM Warning : 
    From function void Foam::snappySnapDriver::calcNearestFace(Foam::label, const indirectPrimitivePatch&, const scalarField&, Foam::vectorField&, Foam::vectorField&, Foam::labelList&, Foam::vectorField&) const
    in file snappyHexMeshDriver/snappySnapDriverFeature.C at line 397
    Did not find surface near face centre (-0.205038 0.050625 -0.211288)
--> FOAM Warning : 
    From function void Foam::snappySnapDriver::calcNearestFace(Foam::label, const indirectPrimitivePatch&, const scalarField&, Foam::vectorField&, Foam::vectorField&, Foam::labelList&, Foam::vectorField&) const
    in file snappyHexMeshDriver/snappySnapDriverFeature.C at line 397
    Did not find surface near face centre (-0.211288 0.050625 -0.205038)
--> FOAM Warning : 
    From function void Foam::snappySnapDriver::calcNearestFace(Foam::label, const indirectPrimitivePatch&, const scalarField&, Foam::vectorField&, Foam::vectorField&, Foam::labelList&, Foam::vectorField&) const
    in file snappyHexMeshDriver/snappySnapDriverFeature.C at line 397
    Did not find surface near face centre (-0.205038 0.063375 -0.211288)
--> FOAM Warning : 
    From function void Foam::snappySnapDriver::calcNearestFace(Foam::label, const indirectPrimitivePatch&, const scalarField&, Foam::vectorField&, Foam::vectorField&, Foam::labelList&, Foam::vectorField&) const
    in file snappyHexMeshDriver/snappySnapDriverFeature.C at line 397
    Did not find surface near face centre (-0.211288 0.063375 -0.205038)
--> FOAM Warning : 
    From function void Foam::snappySnapDriver::calcNearestFace(Foam::label, const indirectPrimitivePatch&, const scalarField&, Foam::vectorField&, Foam::vectorField&, Foam::labelList&, Foam::vectorField&) const
    in file snappyHexMeshDriver/snappySnapDriverFeature.C at line 397
    Did not find surface near face centre (-0.205038 0.101625 -0.211288)
--> FOAM Warning : 
    From function void Foam::snappySnapDriver::calcNearestFace(Foam::label, const indirectPrimitivePatch&, const scalarField&, Foam::vectorField&, Foam::vectorField&, Foam::labelList&, Foam::vectorField&) const
    in file snappyHexMeshDriver/snappySnapDriverFeature.C at line 397
    Did not find surface near face centre (-0.211288 0.101625 -0.205038)
--> FOAM Warning : 
    From function void Foam::snappySnapDriver::calcNearestFace(Foam::label, const indirectPrimitivePatch&, const scalarField&, Foam::vectorField&, Foam::vectorField&, Foam::labelList&, Foam::vectorField&) const
    in file snappyHexMeshDriver/snappySnapDriverFeature.C at line 397
    Did not find surface near face centre (-0.205038 0.114375 -0.211288)
--> FOAM Warning : 
    From function void Foam::snappySnapDriver::calcNearestFace(Foam::label, const indirectPrimitivePatch&, const scalarField&, Foam::vectorField&, Foam::vectorField&, Foam::labelList&, Foam::vectorField&) const
    in file snappyHexMeshDriver/snappySnapDriverFeature.C at line 397
    Did not find surface near face centre (-0.211288 0.114375 -0.205038)
--> FOAM Warning : 
    From function void Foam::snappySnapDriver::calcNearestFace(Foam::label, const indirectPrimitivePatch&, const scalarField&, Foam::vectorField&, Foam::vectorField&, Foam::labelList&, Foam::vectorField&) const
    in file snappyHexMeshDriver/snappySnapDriverFeature.C at line 397
    Did not find surface near face centre (-0.205038 0.152625 -0.211288)
--> FOAM Warning : 
    From function void Foam::snappySnapDriver::calcNearestFace(Foam::label, const indirectPrimitivePatch&, const scalarField&, Foam::vectorField&, Foam::vectorField&, Foam::labelList&, Foam::vectorField&) const
    in file snappyHexMeshDriver/snappySnapDriverFeature.C at line 397
    Did not find surface near face centre (-0.211288 0.152625 -0.205038)
--> FOAM Warning : 
    From function void Foam::snappySnapDriver::calcNearestFace(Foam::label, const indirectPrimitivePatch&, const scalarField&, Foam::vectorField&, Foam::vectorField&, Foam::labelList&, Foam::vectorField&) const
    in file snappyHexMeshDriver/snappySnapDriverFeature.C at line 397
    Did not find surface near face centre (-0.205003 0.165308 -0.211254)
--> FOAM Warning : 
    From function void Foam::snappySnapDriver::calcNearestFace(Foam::label, const indirectPrimitivePatch&, const scalarField&, Foam::vectorField&, Foam::vectorField&, Foam::labelList&, Foam::vectorField&) const
    in file snappyHexMeshDriver/snappySnapDriverFeature.C at line 397
    Did not find surface near face centre (-0.211254 0.165308 -0.205003)
--> FOAM Warning : 
    From function void Foam::snappySnapDriver::calcNearestFace(Foam::label, const indirectPrimitivePatch&, const scalarField&, Foam::vectorField&, Foam::vectorField&, Foam::labelList&, Foam::vectorField&) const
    in file snappyHexMeshDriver/snappySnapDriverFeature.C at line 397
    Did not find surface near face centre (-0.0806601 -0.787172 -0.283406)
--> FOAM Warning : 
    From function void Foam::snappySnapDriver::calcNearestFace(Foam::label, const indirectPrimitivePatch&, const scalarField&, Foam::vectorField&, Foam::vectorField&, Foam::labelList&, Foam::vectorField&) const
    in file snappyHexMeshDriver/snappySnapDriverFeature.C at line 397
    Did not find surface near face centre (-0.0976719 -0.786994 -0.277752)
--> FOAM Warning : 
    From function void Foam::snappySnapDriver::calcNearestFace(Foam::label, const indirectPrimitivePatch&, const scalarField&, Foam::vectorField&, Foam::vectorField&, Foam::labelList&, Foam::vectorField&) const
    in file snappyHexMeshDriver/snappySnapDriverFeature.C at line 397
    Did not find surface near face centre (-0.0989404 -0.752625 -0.279892)
--> FOAM Warning : 
    From function void Foam::snappySnapDriver::calcNearestFace(Foam::label, const indirectPrimitivePatch&, const scalarField&, Foam::vectorField&, Foam::vectorField&, Foam::labelList&, Foam::vectorField&) const
    in file snappyHexMeshDriver/snappySnapDriverFeature.C at line 397
    Did not find surface near face centre (-0.0810103 -0.688875 -0.28594)
--> FOAM Warning : 
    From function void Foam::snappySnapDriver::calcNearestFace(Foam::label, const indirectPrimitivePatch&, const scalarField&, Foam::vectorField&, Foam::vectorField&, Foam::labelList&, Foam::vectorField&) const
    in file snappyHexMeshDriver/snappySnapDriverFeature.C at line 397
    Did not find surface near face centre (-0.0989404 -0.701625 -0.279892)
--> FOAM Warning : 
    From function void Foam::snappySnapDriver::calcNearestFace(Foam::label, const indirectPrimitivePatch&, const scalarField&, Foam::vectorField&, Foam::vectorField&, Foam::labelList&, Foam::vectorField&) const
    in file snappyHexMeshDriver/snappySnapDriverFeature.C at line 397
    Did not find surface near face centre (-0.0989404 -0.688875 -0.279892)
--> FOAM Warning : 
    From function void Foam::snappySnapDriver::calcNearestFace(Foam::label, const indirectPrimitivePatch&, const scalarField&, Foam::vectorField&, Foam::vectorField&, Foam::labelList&, Foam::vectorField&) const
    in file snappyHexMeshDriver/snappySnapDriverFeature.C at line 397
    Did not find surface near face centre (-0.0989404 -0.650625 -0.279892)
--> FOAM Warning : 
    From function void Foam::snappySnapDriver::calcNearestFace(Foam::label, const indirectPrimitivePatch&, const scalarField&, Foam::vectorField&, Foam::vectorField&, Foam::labelList&, Foam::vectorField&) const
    in file snappyHexMeshDriver/snappySnapDriverFeature.C at line 397
    Did not find surface near face centre (-0.0989404 -0.637875 -0.279892)
--> FOAM Warning : 
    From function void Foam::snappySnapDriver::calcNearestFace(Foam::label, const indirectPrimitivePatch&, const scalarField&, Foam::vectorField&, Foam::vectorField&, Foam::labelList&, Foam::vectorField&) const
    in file snappyHexMeshDriver/snappySnapDriverFeature.C at line 397
    Did not find surface near face centre (-0.0810103 -0.586875 -0.28594)
--> FOAM Warning : 
    From function void Foam::snappySnapDriver::calcNearestFace(Foam::label, const indirectPrimitivePatch&, const scalarField&, Foam::vectorField&, Foam::vectorField&, Foam::labelList&, Foam::vectorField&) const
    in file snappyHexMeshDriver/snappySnapDriverFeature.C at line 397
    Did not find surface near face centre (-0.0989404 -0.599625 -0.279892)
--> FOAM Warning : 
    From function void Foam::snappySnapDriver::calcNearestFace(Foam::label, const indirectPrimitivePatch&, const scalarField&, Foam::vectorField&, Foam::vectorField&, Foam::labelList&, Foam::vectorField&) const
    in file snappyHexMeshDriver/snappySnapDriverFeature.C at line 397
    Did not find surface near face centre (-0.0989404 -0.586875 -0.279892)
--> FOAM Warning : 
    From function void Foam::snappySnapDriver::calcNearestFace(Foam::label, const indirectPrimitivePatch&, const scalarField&, Foam::vectorField&, Foam::vectorField&, Foam::labelList&, Foam::vectorField&) const
    in file snappyHexMeshDriver/snappySnapDriverFeature.C at line 397
    Did not find surface near face centre (-0.0987099 0.177365 -0.279436)
--> FOAM Warning : 
    From function void Foam::snappySnapDriver::calcNearestFace(Foam::label, const indirectPrimitivePatch&, const scalarField&, Foam::vectorField&, Foam::vectorField&, Foam::labelList&, Foam::vectorField&) const
    in file snappyHexMeshDriver/snappySnapDriverFeature.C at line 397
    Did not find surface near face centre (-0.178164 -0.786978 -0.23454)
--> FOAM Warning : 
    From function void Foam::snappySnapDriver::calcNearestFace(Foam::label, const indirectPrimitivePatch&, const scalarField&, Foam::vectorField&, Foam::vectorField&, Foam::labelList&, Foam::vectorField&) const
    in file snappyHexMeshDriver/snappySnapDriverFeature.C at line 397
    Did not find surface near face centre (-0.184663 -0.78701 -0.228148)
--> FOAM Warning : 
    From function void Foam::snappySnapDriver::calcNearestFace(Foam::label, const indirectPrimitivePatch&, const scalarField&, Foam::vectorField&, Foam::vectorField&, Foam::labelList&, Foam::vectorField&) const
    in file snappyHexMeshDriver/snappySnapDriverFeature.C at line 397
    Did not find surface near face centre (-0.186287 -0.739875 -0.230037)
--> FOAM Warning : 
    From function void Foam::snappySnapDriver::calcNearestFace(Foam::label, const indirectPrimitivePatch&, const scalarField&, Foam::vectorField&, Foam::vectorField&, Foam::labelList&, Foam::vectorField&) const
    in file snappyHexMeshDriver/snappySnapDriverFeature.C at line 397
    Did not find surface near face centre (-0.186287 -0.688875 -0.230037)
--> FOAM Warning : 
    From function void Foam::snappySnapDriver::calcNearestFace(Foam::label, const indirectPrimitivePatch&, const scalarField&, Foam::vectorField&, Foam::vectorField&, Foam::labelList&, Foam::vectorField&) const
    in file snappyHexMeshDriver/snappySnapDriverFeature.C at line 397
    Did not find surface near face centre (-0.186287 -0.637875 -0.230037)
--> FOAM Warning : 
    From function void Foam::snappySnapDriver::calcNearestFace(Foam::label, const indirectPrimitivePatch&, const scalarField&, Foam::vectorField&, Foam::vectorField&, Foam::labelList&, Foam::vectorField&) const
    in file snappyHexMeshDriver/snappySnapDriverFeature.C at line 397
    Did not find surface near face centre (-0.186287 -0.586875 -0.230037)
--> FOAM Warning : 
    From function void Foam::snappySnapDriver::calcNearestFace(Foam::label, const indirectPrimitivePatch&, const scalarField&, Foam::vectorField&, Foam::vectorField&, Foam::labelList&, Foam::vectorField&) const
    in file snappyHexMeshDriver/snappySnapDriverFeature.C at line 397
    Did not find surface near face centre (-0.186287 -0.535875 -0.230037)
--> FOAM Warning : 
    From function void Foam::snappySnapDriver::calcNearestFace(Foam::label, const indirectPrimitivePatch&, const scalarField&, Foam::vectorField&, Foam::vectorField&, Foam::labelList&, Foam::vectorField&) const
    in file snappyHexMeshDriver/snappySnapDriverFeature.C at line 397
    Did not find surface near face centre (-0.186287 -0.484875 -0.230037)
--> FOAM Warning : 
    From function void Foam::snappySnapDriver::calcNearestFace(Foam::label, const indirectPrimitivePatch&, const scalarField&, Foam::vectorField&, Foam::vectorField&, Foam::labelList&, Foam::vectorField&) const
    in file snappyHexMeshDriver/snappySnapDriverFeature.C at line 397
    Did not find surface near face centre (-0.186287 -0.433875 -0.230037)
--> FOAM Warning : 
    From function void Foam::snappySnapDriver::calcNearestFace(Foam::label, const indirectPrimitivePatch&, const scalarField&, Foam::vectorField&, Foam::vectorField&, Foam::labelList&, Foam::vectorField&) const
    in file snappyHexMeshDriver/snappySnapDriverFeature.C at line 397
    Did not find surface near face centre (-0.186287 -0.382875 -0.230037)
--> FOAM Warning : 
    From function void Foam::snappySnapDriver::calcNearestFace(Foam::label, const indirectPrimitivePatch&, const scalarField&, Foam::vectorField&, Foam::vectorField&, Foam::labelList&, Foam::vectorField&) const
    in file snappyHexMeshDriver/snappySnapDriverFeature.C at line 397
    Did not find surface near face centre (-0.186287 -0.331875 -0.230037)
--> FOAM Warning : 
    From function void Foam::snappySnapDriver::calcNearestFace(Foam::label, const indirectPrimitivePatch&, const scalarField&, Foam::vectorField&, Foam::vectorField&, Foam::labelList&, Foam::vectorField&) const
    in file snappyHexMeshDriver/snappySnapDriverFeature.C at line 397
    Did not find surface near face centre (-0.186287 -0.280875 -0.230037)
--> FOAM Warning : 
    From function void Foam::snappySnapDriver::calcNearestFace(Foam::label, const indirectPrimitivePatch&, const scalarField&, Foam::vectorField&, Foam::vectorField&, Foam::labelList&, Foam::vectorField&) const
    in file snappyHexMeshDriver/snappySnapDriverFeature.C at line 397
    Did not find surface near face centre (-0.186287 -0.229875 -0.230037)
--> FOAM Warning : 
    From function void Foam::snappySnapDriver::calcNearestFace(Foam::label, const indirectPrimitivePatch&, const scalarField&, Foam::vectorField&, Foam::vectorField&, Foam::labelList&, Foam::vectorField&) const
    in file snappyHexMeshDriver/snappySnapDriverFeature.C at line 397
    Did not find surface near face centre (-0.186287 -0.178875 -0.230037)
--> FOAM Warning : 
    From function void Foam::snappySnapDriver::calcNearestFace(Foam::label, const indirectPrimitivePatch&, const scalarField&, Foam::vectorField&, Foam::vectorField&, Foam::labelList&, Foam::vectorField&) const
    in file snappyHexMeshDriver/snappySnapDriverFeature.C at line 397
    Did not find surface near face centre (-0.186287 -0.127875 -0.230037)
--> FOAM Warning : 
    From function void Foam::snappySnapDriver::calcNearestFace(Foam::label, const indirectPrimitivePatch&, const scalarField&, Foam::vectorField&, Foam::vectorField&, Foam::labelList&, Foam::vectorField&) const
    in file snappyHexMeshDriver/snappySnapDriverFeature.C at line 397
    Did not find surface near face centre (-0.186287 -0.076875 -0.230037)
--> FOAM Warning : 
    From function void Foam::snappySnapDriver::calcNearestFace(Foam::label, const indirectPrimitivePatch&, const scalarField&, Foam::vectorField&, Foam::vectorField&, Foam::labelList&, Foam::vectorField&) const
    in file snappyHexMeshDriver/snappySnapDriverFeature.C at line 397
    Did not find surface near face centre (-0.186287 -0.025875 -0.230037)
--> FOAM Warning : 
    From function void Foam::snappySnapDriver::calcNearestFace(Foam::label, const indirectPrimitivePatch&, const scalarField&, Foam::vectorField&, Foam::vectorField&, Foam::labelList&, Foam::vectorField&) const
    in file snappyHexMeshDriver/snappySnapDriverFeature.C at line 397
    Did not find surface near face centre (-0.186287 0.025125 -0.230037)
--> FOAM Warning : 
    From function void Foam::snappySnapDriver::calcNearestFace(Foam::label, const indirectPrimitivePatch&, const scalarField&, Foam::vectorField&, Foam::vectorField&, Foam::labelList&, Foam::vectorField&) const
    in file snappyHexMeshDriver/snappySnapDriverFeature.C at line 397
    Did not find surface near face centre (-0.186287 0.076125 -0.230037)
--> FOAM Warning : 
    From function void Foam::snappySnapDriver::calcNearestFace(Foam::label, const indirectPrimitivePatch&, const scalarField&, Foam::vectorField&, Foam::vectorField&, Foam::labelList&, Foam::vectorField&) const
    in file snappyHexMeshDriver/snappySnapDriverFeature.C at line 397
    Did not find surface near face centre (-0.186287 0.127125 -0.230037)
--> FOAM Warning : 
    From function void Foam::snappySnapDriver::calcNearestFace(Foam::label, const indirectPrimitivePatch&, const scalarField&, Foam::vectorField&, Foam::vectorField&, Foam::labelList&, Foam::vectorField&) const
    in file snappyHexMeshDriver/snappySnapDriverFeature.C at line 397
    Did not find surface near face centre (-0.185922 0.177364 -0.229662)
--> FOAM Warning : 
    From function void Foam::snappySnapDriver::calcNearestFace(Foam::label, const indirectPrimitivePatch&, const scalarField&, Foam::vectorField&, Foam::vectorField&, Foam::labelList&, Foam::vectorField&) const
    in file snappyHexMeshDriver/snappySnapDriverFeature.C at line 397
    Did not find surface near face centre (-0.228148 -0.78701 -0.184663)
--> FOAM Warning : 
    From function void Foam::snappySnapDriver::calcNearestFace(Foam::label, const indirectPrimitivePatch&, const scalarField&, Foam::vectorField&, Foam::vectorField&, Foam::labelList&, Foam::vectorField&) const
    in file snappyHexMeshDriver/snappySnapDriverFeature.C at line 397
    Did not find surface near face centre (-0.23454 -0.786978 -0.178164)
--> FOAM Warning : 
    From function void Foam::snappySnapDriver::calcNearestFace(Foam::label, const indirectPrimitivePatch&, const scalarField&, Foam::vectorField&, Foam::vectorField&, Foam::labelList&, Foam::vectorField&) const
    in file snappyHexMeshDriver/snappySnapDriverFeature.C at line 397
    Did not find surface near face centre (-0.230037 -0.739875 -0.186287)
--> FOAM Warning : 
    From function void Foam::snappySnapDriver::calcNearestFace(Foam::label, const indirectPrimitivePatch&, const scalarField&, Foam::vectorField&, Foam::vectorField&, Foam::labelList&, Foam::vectorField&) const
    in file snappyHexMeshDriver/snappySnapDriverFeature.C at line 397
    Did not find surface near face centre (-0.230037 -0.688875 -0.186287)
--> FOAM Warning : 
    From function void Foam::snappySnapDriver::calcNearestFace(Foam::label, const indirectPrimitivePatch&, const scalarField&, Foam::vectorField&, Foam::vectorField&, Foam::labelList&, Foam::vectorField&) const
    in file snappyHexMeshDriver/snappySnapDriverFeature.C at line 397
    Did not find surface near face centre (-0.230037 -0.637875 -0.186287)
--> FOAM Warning : 
    From function void Foam::snappySnapDriver::calcNearestFace(Foam::label, const indirectPrimitivePatch&, const scalarField&, Foam::vectorField&, Foam::vectorField&, Foam::labelList&, Foam::vectorField&) const
    in file snappyHexMeshDriver/snappySnapDriverFeature.C at line 397
    Did not find surface near face centre (-0.230037 -0.586875 -0.186287)
--> FOAM Warning : 
    From function void Foam::snappySnapDriver::calcNearestFace(Foam::label, const indirectPrimitivePatch&, const scalarField&, Foam::vectorField&, Foam::vectorField&, Foam::labelList&, Foam::vectorField&) const
    in file snappyHexMeshDriver/snappySnapDriverFeature.C at line 397
    Did not find surface near face centre (-0.230037 -0.535875 -0.186287)
--> FOAM Warning : 
    From function void Foam::snappySnapDriver::calcNearestFace(Foam::label, const indirectPrimitivePatch&, const scalarField&, Foam::vectorField&, Foam::vectorField&, Foam::labelList&, Foam::vectorField&) const
    in file snappyHexMeshDriver/snappySnapDriverFeature.C at line 397
    Did not find surface near face centre (-0.230037 -0.484875 -0.186287)
--> FOAM Warning : 
    From function void Foam::snappySnapDriver::calcNearestFace(Foam::label, const indirectPrimitivePatch&, const scalarField&, Foam::vectorField&, Foam::vectorField&, Foam::labelList&, Foam::vectorField&) const
    in file snappyHexMeshDriver/snappySnapDriverFeature.C at line 397
    Did not find surface near face centre (-0.230037 -0.433875 -0.186287)
--> FOAM Warning : 
    From function void Foam::snappySnapDriver::calcNearestFace(Foam::label, const indirectPrimitivePatch&, const scalarField&, Foam::vectorField&, Foam::vectorField&, Foam::labelList&, Foam::vectorField&) const
    in file snappyHexMeshDriver/snappySnapDriverFeature.C at line 397
    Did not find surface near face centre (-0.230037 -0.382875 -0.186287)
--> FOAM Warning : 
    From function void Foam::snappySnapDriver::calcNearestFace(Foam::label, const indirectPrimitivePatch&, const scalarField&, Foam::vectorField&, Foam::vectorField&, Foam::labelList&, Foam::vectorField&) const
    in file snappyHexMeshDriver/snappySnapDriverFeature.C at line 397
    Did not find surface near face centre (-0.230037 -0.331875 -0.186287)
--> FOAM Warning : 
    From function void Foam::snappySnapDriver::calcNearestFace(Foam::label, const indirectPrimitivePatch&, const scalarField&, Foam::vectorField&, Foam::vectorField&, Foam::labelList&, Foam::vectorField&) const
    in file snappyHexMeshDriver/snappySnapDriverFeature.C at line 397
    Did not find surface near face centre (-0.230037 -0.280875 -0.186287)
--> FOAM Warning : 
    From function void Foam::snappySnapDriver::calcNearestFace(Foam::label, const indirectPrimitivePatch&, const scalarField&, Foam::vectorField&, Foam::vectorField&, Foam::labelList&, Foam::vectorField&) const
    in file snappyHexMeshDriver/snappySnapDriverFeature.C at line 397
    Did not find surface near face centre (-0.230037 -0.229875 -0.186287)
--> FOAM Warning : 
    From function void Foam::snappySnapDriver::calcNearestFace(Foam::label, const indirectPrimitivePatch&, const scalarField&, Foam::vectorField&, Foam::vectorField&, Foam::labelList&, Foam::vectorField&) const
    in file snappyHexMeshDriver/snappySnapDriverFeature.C at line 397
    Did not find surface near face centre (-0.230037 -0.178875 -0.186287)
--> FOAM Warning : 
    From function void Foam::snappySnapDriver::calcNearestFace(Foam::label, const indirectPrimitivePatch&, const scalarField&, Foam::vectorField&, Foam::vectorField&, Foam::labelList&, Foam::vectorField&) const
    in file snappyHexMeshDriver/snappySnapDriverFeature.C at line 397
    Did not find surface near face centre (-0.230037 -0.127875 -0.186287)
--> FOAM Warning : 
    From function void Foam::snappySnapDriver::calcNearestFace(Foam::label, const indirectPrimitivePatch&, const scalarField&, Foam::vectorField&, Foam::vectorField&, Foam::labelList&, Foam::vectorField&) const
    in file snappyHexMeshDriver/snappySnapDriverFeature.C at line 397
    Did not find surface near face centre (-0.230037 -0.076875 -0.186287)
--> FOAM Warning : 
    From function void Foam::snappySnapDriver::calcNearestFace(Foam::label, const indirectPrimitivePatch&, const scalarField&, Foam::vectorField&, Foam::vectorField&, Foam::labelList&, Foam::vectorField&) const
    in file snappyHexMeshDriver/snappySnapDriverFeature.C at line 397
    Did not find surface near face centre (-0.230037 -0.025875 -0.186287)
--> FOAM Warning : 
    From function void Foam::snappySnapDriver::calcNearestFace(Foam::label, const indirectPrimitivePatch&, const scalarField&, Foam::vectorField&, Foam::vectorField&, Foam::labelList&, Foam::vectorField&) const
    in file snappyHexMeshDriver/snappySnapDriverFeature.C at line 397
    Did not find surface near face centre (-0.230037 0.025125 -0.186287)
--> FOAM Warning : 
    From function void Foam::snappySnapDriver::calcNearestFace(Foam::label, const indirectPrimitivePatch&, const scalarField&, Foam::vectorField&, Foam::vectorField&, Foam::labelList&, Foam::vectorField&) const
    in file snappyHexMeshDriver/snappySnapDriverFeature.C at line 397
    Did not find surface near face centre (-0.230037 0.076125 -0.186287)
--> FOAM Warning : 
    From function void Foam::snappySnapDriver::calcNearestFace(Foam::label, const indirectPrimitivePatch&, const scalarField&, Foam::vectorField&, Foam::vectorField&, Foam::labelList&, Foam::vectorField&) const
    in file snappyHexMeshDriver/snappySnapDriverFeature.C at line 397
    Did not find surface near face centre (-0.230037 0.127125 -0.186287)
--> FOAM Warning : 
    From function void Foam::snappySnapDriver::calcNearestFace(Foam::label, const indirectPrimitivePatch&, const scalarField&, Foam::vectorField&, Foam::vectorField&, Foam::labelList&, Foam::vectorField&) const
    in file snappyHexMeshDriver/snappySnapDriverFeature.C at line 397
    Did not find surface near face centre (-0.229662 0.177364 -0.185922)
--> FOAM Warning : 
    From function void Foam::snappySnapDriver::calcNearestFace(Foam::label, const indirectPrimitivePatch&, const scalarField&, Foam::vectorField&, Foam::vectorField&, Foam::labelList&, Foam::vectorField&) const
    in file snappyHexMeshDriver/snappySnapDriverFeature.C at line 397
    Did not find surface near face centre (-0.235851 0.177355 -0.17963)
--> FOAM Warning : 
    From function void Foam::snappySnapDriver::calcNearestFace(Foam::label, const indirectPrimitivePatch&, const scalarField&, Foam::vectorField&, Foam::vectorField&, Foam::labelList&, Foam::vectorField&) const
    in file snappyHexMeshDriver/snappySnapDriverFeature.C at line 397
    Did not find surface near face centre (-0.283406 -0.787172 -0.0806601)
--> FOAM Warning : 
    From function void Foam::snappySnapDriver::calcNearestFace(Foam::label, const indirectPrimitivePatch&, const scalarField&, Foam::vectorField&, Foam::vectorField&, Foam::labelList&, Foam::vectorField&) const
    in file snappyHexMeshDriver/snappySnapDriverFeature.C at line 397
    Did not find surface near face centre (-0.277752 -0.786994 -0.0976719)
--> FOAM Warning : 
    From function void Foam::snappySnapDriver::calcNearestFace(Foam::label, const indirectPrimitivePatch&, const scalarField&, Foam::vectorField&, Foam::vectorField&, Foam::labelList&, Foam::vectorField&) const
    in file snappyHexMeshDriver/snappySnapDriverFeature.C at line 397
    Did not find surface near face centre (-0.140734 -0.786989 -0.259561)
--> FOAM Warning : 
    From function void Foam::snappySnapDriver::calcNearestFace(Foam::label, const indirectPrimitivePatch&, const scalarField&, Foam::vectorField&, Foam::vectorField&, Foam::labelList&, Foam::vectorField&) const
    in file snappyHexMeshDriver/snappySnapDriverFeature.C at line 397
    Did not find surface near face centre (-0.069032 -0.787582 -0.2857)
--> FOAM Warning : 
    From function void Foam::snappySnapDriver::calcNearestFace(Foam::label, const indirectPrimitivePatch&, const scalarField&, Foam::vectorField&, Foam::vectorField&, Foam::labelList&, Foam::vectorField&) const
    in file snappyHexMeshDriver/snappySnapDriverFeature.C at line 397
    Did not find surface near face centre (-0.0601719 -0.786994 -0.290252)
--> FOAM Warning : 
    From function void Foam::snappySnapDriver::calcNearestFace(Foam::label, const indirectPrimitivePatch&, const scalarField&, Foam::vectorField&, Foam::vectorField&, Foam::labelList&, Foam::vectorField&) const
    in file snappyHexMeshDriver/snappySnapDriverFeature.C at line 397
    Did not find surface near face centre (-0.0701083 -0.777471 -0.287778)
--> FOAM Warning : 
    From function void Foam::snappySnapDriver::calcNearestFace(Foam::label, const indirectPrimitivePatch&, const scalarField&, Foam::vectorField&, Foam::vectorField&, Foam::labelList&, Foam::vectorField&) const
    in file snappyHexMeshDriver/snappySnapDriverFeature.C at line 397
    Did not find surface near face centre (-0.140734 0.186989 -0.259561)
--> FOAM Warning : 
    From function void Foam::snappySnapDriver::calcNearestFace(Foam::label, const indirectPrimitivePatch&, const scalarField&, Foam::vectorField&, Foam::vectorField&, Foam::labelList&, Foam::vectorField&) const
    in file snappyHexMeshDriver/snappySnapDriverFeature.C at line 397
    Did not find surface near face centre (-0.0701083 0.177471 -0.287778)
--> FOAM Warning : 
    From function void Foam::snappySnapDriver::calcNearestFace(Foam::label, const indirectPrimitivePatch&, const scalarField&, Foam::vectorField&, Foam::vectorField&, Foam::labelList&, Foam::vectorField&) const
    in file snappyHexMeshDriver/snappySnapDriverFeature.C at line 397
    Did not find surface near face centre (-0.0806601 0.187172 -0.283406)
--> FOAM Warning : 
    From function void Foam::snappySnapDriver::calcNearestFace(Foam::label, const indirectPrimitivePatch&, const scalarField&, Foam::vectorField&, Foam::vectorField&, Foam::labelList&, Foam::vectorField&) const
[...]

Handling feature edges ...
Set displacement to zero for points on 2675 feature edges

Handling cells with warped patch faces ...
Set displacement to zero on 0 warped faces since layer would be > 0.5 of the size of the bounding box.

patch         faces    layers avg thickness[m]
                              near-wall overall
-----         -----    ------ --------- -------
outerCylinder 10301    3      0.0026    0.00948 
propeller     39261    5      0.000242  0.0016  

Selecting externalDisplacementMeshMover displacementMedialAxis
displacementMedialAxis : Calculating distance to Medial Axis ...
displacementMedialAxis : Smoothing normals ...
    Iteration 0   residual 0.0290905
displacementMedialAxis : Inserting points on patch walls if angle to nearest layer patch > 15 degrees.
displacementMedialAxis : Inserting points on patch inlet if angle to nearest layer patch > 15 degrees.
displacementMedialAxis : Inserting points on patch outlet if angle to nearest layer patch > 15 degrees.
displacementMedialAxis : Inserting points on patch innerCylinder if angle to nearest layer patch > 15 degrees.
displacementMedialAxis : Inserting points on patch innerCylinder_slave if angle to nearest layer patch > 15 degrees.
displacementMedialAxis : Smoothing normals in interior ...
    Iteration 0   residual 0.0633115

Layer addition iteration 0
--------------------------

Determining displacement for added points according to pointNormal ...
Detected 0 points with point normal pointing through faces.
Reset displacement at 0 points to average of surrounding points.

displacementMedialAxis : Smoothing using Medial Axis ...
displacementMedialAxis : Reducing layer thickness at 1744 nodes where thickness to medial axis distance is large 
displacementMedialAxis : Removing isolated regions ...
displacementMedialAxis : Number of isolated points extrusion stopped : 1562
displacementMedialAxis : Smoothing field ...
    Iteration 0   residual 1.13326e-05
displacementMedialAxis : Moving mesh ...
displacementMedialAxis : Iteration 0
Moving mesh using displacement scaling : min:1  max:1
Checking faces in error :
    non-orthogonality > 65  degrees                        : 418
    faces with face-decomposition tet quality < -1         : 0
    faces with concavity > 80  degrees                     : 8
    faces with skewness > 4   (internal) or 20  (boundary) : 0
    faces with interpolation weights (0..1)  < 0.05        : 68
    faces with volume ratio of neighbour cells < 0.01      : 5
    faces with face twist < 0.01                           : 250
    faces on cells with determinant < 0.001                : 29
displacementMedialAxis : Iteration 1
Moving mesh using displacement scaling : min:0.75  max:1
Checking faces in error :
    non-orthogonality > 65  degrees                        : 229
    faces with face-decomposition tet quality < -1         : 0
    faces with concavity > 80  degrees                     : 8
    faces with skewness > 4   (internal) or 20  (boundary) : 0
    faces with interpolation weights (0..1)  < 0.05        : 16
    faces with volume ratio of neighbour cells < 0.01      : 0
    faces with face twist < 0.01                           : 65
    faces on cells with determinant < 0.001                : 87
displacementMedialAxis : Iteration 2
Moving mesh using displacement scaling : min:0.5625  max:1
Checking faces in error :
    non-orthogonality > 65  degrees                        : 103
    faces with face-decomposition tet quality < -1         : 0
    faces with concavity > 80  degrees                     : 4
    faces with skewness > 4   (internal) or 20  (boundary) : 0
    faces with interpolation weights (0..1)  < 0.05        : 0
    faces with volume ratio of neighbour cells < 0.01      : 0
    faces with face twist < 0.01                           : 140
    faces on cells with determinant < 0.001                : 0
displacementMedialAxis : Iteration 3
displacementMedialAxis : Displacement scaling for error reduction set to 0.
Moving mesh using displacement scaling : min:0.421875  max:1
Checking faces in error :
    non-orthogonality > 65  degrees                        : 44
    faces with face-decomposition tet quality < -1         : 0
    faces with concavity > 80  degrees                     : 0
    faces with skewness > 4   (internal) or 20  (boundary) : 0
    faces with interpolation weights (0..1)  < 0.05        : 0
    faces with volume ratio of neighbour cells < 0.01      : 0
    faces with face twist < 0.01                           : 8
    faces on cells with determinant < 0.001                : 0
displacementMedialAxis : Iteration 4
Moving mesh using displacement scaling : min:0  max:1
Checking faces in error :
    non-orthogonality > 65  degrees                        : 30
    faces with face-decomposition tet quality < -1         : 0
    faces with concavity > 80  degrees                     : 0
    faces with skewness > 4   (internal) or 20  (boundary) : 0
    faces with interpolation weights (0..1)  < 0.05        : 0
    faces with volume ratio of neighbour cells < 0.01      : 0
    faces with face twist < 0.01                           : 2
    faces on cells with determinant < 0.001                : 0
displacementMedialAxis : Iteration 5
Moving mesh using displacement scaling : min:0  max:1
Checking faces in error :
    non-orthogonality > 65  degrees                        : 28
    faces with face-decomposition tet quality < -1         : 0
    faces with concavity > 80  degrees                     : 0
    faces with skewness > 4   (internal) or 20  (boundary) : 0
    faces with interpolation weights (0..1)  < 0.05        : 0
    faces with volume ratio of neighbour cells < 0.01      : 0
    faces with face twist < 0.01                           : 0
    faces on cells with determinant < 0.001                : 0
displacementMedialAxis : Finished moving mesh ...
truncateDisplacement : Unextruded 4 faces due to non-consecutive vertices being extruded.
truncateDisplacement : Unextruded 4 faces due to stringed edges with inconsistent extrusion.
truncateDisplacement : Unextruded 0 faces due to non-consecutive vertices being extruded.
truncateDisplacement : Unextruded 0 faces due to stringed edges with inconsistent extrusion.

Setting up information for layer truncation ...

Checking mesh with layer ...
Checking faces in error :
    non-orthogonality > 65  degrees                        : 158
    faces with face-decomposition tet quality < -1         : 0
    faces with concavity > 80  degrees                     : 0
    faces with skewness > 4   (internal) or 20  (boundary) : 0
    faces with interpolation weights (0..1)  < 0.05        : 75
    faces with volume ratio of neighbour cells < 0.01      : 0
    faces with face twist < 0.01                           : 41
    faces on cells with determinant < 0.001                : 12
Detected 286 illegal faces (concave, zero area or negative cell pyramid volume)
Extruding 47540 out of 49562 faces (95.9203%). Removed extrusion at 219 faces.
Added 185307 out of 227208 cells (81.5583%).


Layer addition iteration 1
--------------------------

Determining displacement for added points according to pointNormal ...
Detected 0 points with point normal pointing through faces.
Reset displacement at 0 points to average of surrounding points.

displacementMedialAxis : Smoothing using Medial Axis ...
displacementMedialAxis : Reducing layer thickness at 1290 nodes where thickness to medial axis distance is large 
displacementMedialAxis : Removing isolated regions ...
displacementMedialAxis : Number of isolated points extrusion stopped : 707
displacementMedialAxis : Smoothing field ...
    Iteration 0   residual 1.38855e-05
displacementMedialAxis : Moving mesh ...
displacementMedialAxis : Iteration 0
Moving mesh using displacement scaling : min:1  max:1
Checking faces in error :
    non-orthogonality > 65  degrees                        : 193
    faces with face-decomposition tet quality < -1         : 0
    faces with concavity > 80  degrees                     : 8
    faces with skewness > 4   (internal) or 20  (boundary) : 0
    faces with interpolation weights (0..1)  < 0.05        : 36
    faces with volume ratio of neighbour cells < 0.01      : 0
    faces with face twist < 0.01                           : 72
    faces on cells with determinant < 0.001                : 12
displacementMedialAxis : Iteration 1
Moving mesh using displacement scaling : min:0.75  max:1
Checking faces in error :
    non-orthogonality > 65  degrees                        : 110
    faces with face-decomposition tet quality < -1         : 0
    faces with concavity > 80  degrees                     : 8
    faces with skewness > 4   (internal) or 20  (boundary) : 0
    faces with interpolation weights (0..1)  < 0.05        : 0
    faces with volume ratio of neighbour cells < 0.01      : 0
    faces with face twist < 0.01                           : 17
    faces on cells with determinant < 0.001                : 0
displacementMedialAxis : Iteration 2
Moving mesh using displacement scaling : min:0.5625  max:1
Checking faces in error :
    non-orthogonality > 65  degrees                        : 41
    faces with face-decomposition tet quality < -1         : 0
    faces with concavity > 80  degrees                     : 4
    faces with skewness > 4   (internal) or 20  (boundary) : 0
    faces with interpolation weights (0..1)  < 0.05        : 0
    faces with volume ratio of neighbour cells < 0.01      : 0
    faces with face twist < 0.01                           : 66
    faces on cells with determinant < 0.001                : 0
displacementMedialAxis : Iteration 3
displacementMedialAxis : Displacement scaling for error reduction set to 0.
Moving mesh using displacement scaling : min:0.421875  max:1
Checking faces in error :
    non-orthogonality > 65  degrees                        : 37
    faces with face-decomposition tet quality < -1         : 0
    faces with concavity > 80  degrees                     : 0
    faces with skewness > 4   (internal) or 20  (boundary) : 0
    faces with interpolation weights (0..1)  < 0.05        : 0
    faces with volume ratio of neighbour cells < 0.01      : 0
    faces with face twist < 0.01                           : 0
    faces on cells with determinant < 0.001                : 0
displacementMedialAxis : Iteration 4
Moving mesh using displacement scaling : min:0  max:1
Checking faces in error :
    non-orthogonality > 65  degrees                        : 31
    faces with face-decomposition tet quality < -1         : 0
    faces with concavity > 80  degrees                     : 0
    faces with skewness > 4   (internal) or 20  (boundary) : 0
    faces with interpolation weights (0..1)  < 0.05        : 0
    faces with volume ratio of neighbour cells < 0.01      : 0
    faces with face twist < 0.01                           : 0
    faces on cells with determinant < 0.001                : 0
displacementMedialAxis : Iteration 5
Moving mesh using displacement scaling : min:0  max:1
Checking faces in error :
    non-orthogonality > 65  degrees                        : 28
    faces with face-decomposition tet quality < -1         : 0
    faces with concavity > 80  degrees                     : 0
    faces with skewness > 4   (internal) or 20  (boundary) : 0
    faces with interpolation weights (0..1)  < 0.05        : 0
    faces with volume ratio of neighbour cells < 0.01      : 0
    faces with face twist < 0.01                           : 0
    faces on cells with determinant < 0.001                : 0
displacementMedialAxis : Finished moving mesh ...
truncateDisplacement : Unextruded 0 faces due to non-consecutive vertices being extruded.
truncateDisplacement : Unextruded 0 faces due to stringed edges with inconsistent extrusion.

Setting up information for layer truncation ...

Checking mesh with layer ...
Checking faces in error :
    non-orthogonality > 65  degrees                        : 28
    faces with face-decomposition tet quality < -1         : 0
    faces with concavity > 80  degrees                     : 0
    faces with skewness > 4   (internal) or 20  (boundary) : 0
    faces with interpolation weights (0..1)  < 0.05        : 51
    faces with volume ratio of neighbour cells < 0.01      : 0
    faces with face twist < 0.01                           : 4
    faces on cells with determinant < 0.001                : 0
Detected 83 illegal faces (concave, zero area or negative cell pyramid volume)
Extruding 47084 out of 49562 faces (95.0002%). Removed extrusion at 42 faces.
Added 177436 out of 227208 cells (78.0941%).


Layer addition iteration 2
--------------------------

Determining displacement for added points according to pointNormal ...
Detected 0 points with point normal pointing through faces.
Reset displacement at 0 points to average of surrounding points.

displacementMedialAxis : Smoothing using Medial Axis ...
displacementMedialAxis : Reducing layer thickness at 1219 nodes where thickness to medial axis distance is large 
displacementMedialAxis : Removing isolated regions ...
displacementMedialAxis : Number of isolated points extrusion stopped : 83
displacementMedialAxis : Smoothing field ...
    Iteration 0   residual 1.39736e-05
displacementMedialAxis : Moving mesh ...
displacementMedialAxis : Iteration 0
Moving mesh using displacement scaling : min:1  max:1
Checking faces in error :
    non-orthogonality > 65  degrees                        : 187
    faces with face-decomposition tet quality < -1         : 0
    faces with concavity > 80  degrees                     : 8
    faces with skewness > 4   (internal) or 20  (boundary) : 0
    faces with interpolation weights (0..1)  < 0.05        : 36
    faces with volume ratio of neighbour cells < 0.01      : 0
    faces with face twist < 0.01                           : 67
    faces on cells with determinant < 0.001                : 12
displacementMedialAxis : Iteration 1
Moving mesh using displacement scaling : min:0.75  max:1
Checking faces in error :
    non-orthogonality > 65  degrees                        : 107
    faces with face-decomposition tet quality < -1         : 0
    faces with concavity > 80  degrees                     : 8
    faces with skewness > 4   (internal) or 20  (boundary) : 0
    faces with interpolation weights (0..1)  < 0.05        : 0
    faces with volume ratio of neighbour cells < 0.01      : 0
    faces with face twist < 0.01                           : 8
    faces on cells with determinant < 0.001                : 0
displacementMedialAxis : Iteration 2
Moving mesh using displacement scaling : min:0.5625  max:1
Checking faces in error :
    non-orthogonality > 65  degrees                        : 39
    faces with face-decomposition tet quality < -1         : 0
    faces with concavity > 80  degrees                     : 4
    faces with skewness > 4   (internal) or 20  (boundary) : 0
    faces with interpolation weights (0..1)  < 0.05        : 0
    faces with volume ratio of neighbour cells < 0.01      : 0
    faces with face twist < 0.01                           : 64
    faces on cells with determinant < 0.001                : 0
displacementMedialAxis : Iteration 3
displacementMedialAxis : Displacement scaling for error reduction set to 0.
Moving mesh using displacement scaling : min:0.421875  max:1
Checking faces in error :
    non-orthogonality > 65  degrees                        : 35
    faces with face-decomposition tet quality < -1         : 0
    faces with concavity > 80  degrees                     : 0
    faces with skewness > 4   (internal) or 20  (boundary) : 0
    faces with interpolation weights (0..1)  < 0.05        : 0
    faces with volume ratio of neighbour cells < 0.01      : 0
    faces with face twist < 0.01                           : 0
    faces on cells with determinant < 0.001                : 0
displacementMedialAxis : Iteration 4
Moving mesh using displacement scaling : min:0  max:1
Checking faces in error :
    non-orthogonality > 65  degrees                        : 29
    faces with face-decomposition tet quality < -1         : 0
    faces with concavity > 80  degrees                     : 0
    faces with skewness > 4   (internal) or 20  (boundary) : 0
    faces with interpolation weights (0..1)  < 0.05        : 0
    faces with volume ratio of neighbour cells < 0.01      : 0
    faces with face twist < 0.01                           : 0
    faces on cells with determinant < 0.001                : 0
displacementMedialAxis : Iteration 5
Moving mesh using displacement scaling : min:0  max:1
Checking faces in error :
    non-orthogonality > 65  degrees                        : 27
    faces with face-decomposition tet quality < -1         : 0
    faces with concavity > 80  degrees                     : 0
    faces with skewness > 4   (internal) or 20  (boundary) : 0
    faces with interpolation weights (0..1)  < 0.05        : 0
    faces with volume ratio of neighbour cells < 0.01      : 0
    faces with face twist < 0.01                           : 0
    faces on cells with determinant < 0.001                : 0
displacementMedialAxis : Finished moving mesh ...
truncateDisplacement : Unextruded 0 faces due to non-consecutive vertices being extruded.
truncateDisplacement : Unextruded 0 faces due to stringed edges with inconsistent extrusion.

Setting up information for layer truncation ...

Checking mesh with layer ...
Checking faces in error :
    non-orthogonality > 65  degrees                        : 27
    faces with face-decomposition tet quality < -1         : 0
    faces with concavity > 80  degrees                     : 0
    faces with skewness > 4   (internal) or 20  (boundary) : 0
    faces with interpolation weights (0..1)  < 0.05        : 0
    faces with volume ratio of neighbour cells < 0.01      : 0
    faces with face twist < 0.01                           : 0
    faces on cells with determinant < 0.001                : 0
Detected 27 illegal faces (concave, zero area or negative cell pyramid volume)
Extruding 47045 out of 49562 faces (94.9215%). Removed extrusion at 0 faces.
Added 176649 out of 227208 cells (77.7477%).
Edge intersection testing:
    Number of edges             : 2538188
    Number of edges to retest   : 0
    Number of intersected edges : 282944
Converting 26229 baffles back into zoned faces ...
Edge intersection testing:
    Number of edges             : 2511959
    Number of edges to retest   : 26229
    Number of intersected edges : 256715
Converted baffles in = 434.391 s



Doing final balancing
---------------------


patch         faces    layers   overall thickness
                                [m]       [%]
-----         -----    ------   ---       ---
outerCylinder 10301    3        0.00948   100     
propeller     39261    3.71     0.00134   80.5    


Removing zero-sized patches:
    walls type wall at position 0
    innerCylinder type wall at position 3
    innerCylinder_slave type wall at position 4

Layer mesh : cells:800441  faces:2511959  points:919645
Cells per refinement level:
    0	0
    1	7672
    2	81419
    3	195497
    4	244967
    5	270886
Writing mesh to time constant
Wrote mesh in = 31.0236 s.
Layers added in = 563.531 s.
Checking final mesh ...
Checking faces in error :
    non-orthogonality > 65  degrees                        : 27
    faces with face-decomposition tet quality < -1         : 0
    faces with concavity > 80  degrees                     : 0
    faces with skewness > 4   (internal) or 20  (boundary) : 0
    faces with interpolation weights (0..1)  < 0.05        : 0
    faces with volume ratio of neighbour cells < 0.01      : 0
    faces with face twist < 0.01                           : 0
    faces on cells with determinant < 0.001                : 0
Finished meshing with 27 illegal faces (concave, zero area or negative cell pyramid volume)
Finished meshing in = 2283.53 s.
End

Finalising parallel run
